Version 4
SHEET 1 880 1632
WIRE 16 -288 -64 -288
WIRE 16 -240 16 -288
WIRE -64 -160 -64 -288
WIRE -896 0 -1072 0
WIRE -176 0 -816 0
WIRE -64 0 -64 -80
WIRE -736 32 -1184 32
WIRE -176 32 -656 32
WIRE 96 48 48 48
WIRE 208 48 96 48
WIRE 432 48 288 48
WIRE -176 64 -816 64
WIRE -1184 80 -1184 32
WIRE -1072 80 -1072 0
WIRE -320 96 -640 96
WIRE -176 96 -320 96
WIRE -816 144 -816 64
WIRE -640 160 -640 96
WIRE -64 160 -64 96
WIRE 432 224 432 48
WIRE -1184 272 -1184 160
WIRE -1072 272 -1072 160
WIRE -1072 272 -1184 272
WIRE -944 272 -1072 272
WIRE -944 288 -944 272
WIRE -816 288 -816 224
WIRE -816 288 -944 288
WIRE -816 304 -816 288
WIRE -640 304 -640 240
WIRE -640 304 -816 304
WIRE -64 304 -64 240
WIRE -64 304 -640 304
WIRE 176 304 -64 304
WIRE -64 336 -64 304
WIRE 176 400 176 304
WIRE 432 400 432 304
WIRE 432 400 176 400
WIRE -320 448 -320 96
WIRE -96 448 -320 448
WIRE 96 448 96 48
WIRE 96 448 -16 448
FLAG -64 336 0
FLAG 16 -240 0
SYMBOL voltage -64 144 R0
WINDOW 123 0 0 Left 0
WINDOW 39 0 0 Left 0
SYMATTR InstName V5
SYMATTR Value -5
SYMBOL voltage -64 -64 R180
WINDOW 0 24 96 Left 2
WINDOW 3 24 16 Left 2
WINDOW 123 0 0 Left 0
WINDOW 39 0 0 Left 0
SYMATTR InstName V6
SYMATTR Value 5
SYMBOL AD8129 -80 48 R0
SYMATTR InstName U2
SYMBOL voltage -1072 64 R0
WINDOW 3 -626 168 Left 2
WINDOW 39 0 0 Left 0
SYMATTR Value SINE(0 0.05 10Meg 0 0 0 1000)
SYMATTR InstName V7
SYMATTR Value2 AC 0.5 0
SYMBOL res -656 144 R0
SYMATTR InstName R11
SYMATTR Value 1000
SYMBOL res 0 432 R90
WINDOW 0 0 56 VBottom 2
WINDOW 3 32 56 VTop 2
SYMATTR InstName R12
SYMATTR Value 20000
SYMBOL res 304 32 R90
WINDOW 0 0 56 VBottom 2
WINDOW 3 32 56 VTop 2
SYMATTR InstName R15
SYMATTR Value 220
SYMBOL res 448 320 R180
WINDOW 0 36 76 Left 2
WINDOW 3 36 40 Left 2
SYMATTR InstName R16
SYMATTR Value 10Meg
SYMBOL res -800 -16 R90
WINDOW 0 0 56 VBottom 2
WINDOW 3 32 56 VTop 2
SYMATTR InstName R10
SYMATTR Value 50
SYMBOL voltage -1184 64 R0
WINDOW 3 -514 141 Left 2
WINDOW 39 0 0 Left 0
SYMATTR Value SINE(0 0.05 10Meg 0 0 180 1000)
SYMATTR InstName V8
SYMATTR Value2 AC 0.5 0
SYMBOL res -640 16 R90
WINDOW 0 0 56 VBottom 2
WINDOW 3 32 56 VTop 2
SYMATTR InstName R13
SYMATTR Value 50
SYMBOL res -832 128 R0
SYMATTR InstName R14
SYMATTR Value 1000
TEXT -1320 360 Left 2 !.tran 0 4u 3u
