Version 4
SHEET 1 880 1632
WIRE 224 -192 144 -192
WIRE 224 -144 224 -192
WIRE 144 -64 144 -192
WIRE -672 -48 -864 -48
WIRE -720 16 -768 16
WIRE -864 48 -864 -48
WIRE -768 48 -768 16
WIRE -672 64 -672 -48
WIRE -608 64 -672 64
WIRE -400 64 -528 64
WIRE -224 64 -400 64
WIRE -224 96 -224 64
WIRE 32 96 -224 96
WIRE 144 96 144 16
WIRE -720 128 -720 16
WIRE -608 128 -720 128
WIRE -400 128 -528 128
WIRE 32 128 -400 128
WIRE 304 144 256 144
WIRE 368 144 304 144
WIRE 416 144 368 144
WIRE 592 144 496 144
WIRE 640 144 592 144
WIRE 720 144 640 144
WIRE 32 160 -608 160
WIRE -864 176 -864 128
WIRE -240 192 -432 192
WIRE -112 192 -240 192
WIRE 32 192 -112 192
WIRE -608 208 -608 160
WIRE -432 256 -432 192
WIRE 144 256 144 192
WIRE -864 288 -864 256
WIRE -864 288 -960 288
WIRE -864 304 -864 288
WIRE -960 320 -960 288
WIRE 640 320 640 144
WIRE 720 320 720 144
WIRE -864 400 -864 384
WIRE -768 400 -768 128
WIRE -768 400 -864 400
WIRE -608 400 -608 288
WIRE -432 400 -432 336
WIRE -432 400 -608 400
WIRE 144 400 144 336
WIRE 144 400 -432 400
WIRE 384 400 144 400
WIRE 144 432 144 400
WIRE 384 496 384 400
WIRE 640 496 640 400
WIRE 640 496 384 496
WIRE 720 496 720 384
WIRE 720 496 640 496
WIRE -112 544 -112 192
WIRE 112 544 -112 544
WIRE 304 544 304 144
WIRE 304 544 192 544
WIRE -112 640 -112 544
WIRE 112 640 -112 640
WIRE 304 640 304 544
WIRE 304 640 176 640
WIRE 224 752 144 752
WIRE 224 800 224 752
WIRE 144 880 144 752
WIRE 32 1040 -864 1040
WIRE 144 1040 144 960
WIRE 32 1072 -736 1072
WIRE 304 1088 256 1088
WIRE 368 1088 304 1088
WIRE 416 1088 368 1088
WIRE 592 1088 496 1088
WIRE 640 1088 592 1088
WIRE 720 1088 640 1088
WIRE 32 1104 -608 1104
WIRE -864 1120 -864 1040
WIRE -240 1136 -432 1136
WIRE -112 1136 -240 1136
WIRE 32 1136 -112 1136
WIRE -432 1200 -432 1136
WIRE 144 1200 144 1136
WIRE 640 1264 640 1088
WIRE 720 1264 720 1088
WIRE -864 1312 -864 1200
WIRE -736 1312 -736 1072
WIRE -736 1312 -864 1312
WIRE -608 1344 -608 1104
WIRE -432 1344 -432 1280
WIRE -432 1344 -608 1344
WIRE 144 1344 144 1280
WIRE 144 1344 -432 1344
WIRE 384 1344 144 1344
WIRE 144 1376 144 1344
WIRE 384 1440 384 1344
WIRE 640 1440 640 1344
WIRE 640 1440 384 1440
WIRE 720 1440 720 1328
WIRE 720 1440 640 1440
WIRE -112 1488 -112 1136
WIRE 112 1488 -112 1488
WIRE 304 1488 304 1088
WIRE 304 1488 192 1488
FLAG 144 432 0
FLAG 224 -144 0
FLAG -240 192 vfb
FLAG 368 144 VOUT
FLAG 592 144 VLP
FLAG -960 320 0
FLAG 144 1376 0
FLAG 224 800 0
FLAG -240 1136 vfb
FLAG 368 1088 VOUT
FLAG 592 1088 VLP
SYMBOL voltage 144 240 R0
WINDOW 123 0 0 Left 0
WINDOW 39 0 0 Left 0
SYMATTR InstName V1
SYMATTR Value -5
SYMBOL voltage 144 32 R180
WINDOW 0 24 96 Left 2
WINDOW 3 24 16 Left 2
WINDOW 123 0 0 Left 0
WINDOW 39 0 0 Left 0
SYMATTR InstName V2
SYMATTR Value 5
SYMBOL AD8129 128 144 R0
SYMATTR InstName U1
SYMBOL voltage -864 160 R0
WINDOW 3 -456 247 Left 2
WINDOW 39 0 0 Left 0
SYMATTR Value SINE(0 0.05 10Meg 0 0 0 1000)
SYMATTR InstName V3
SYMATTR Value2 AC 0.5 0
SYMBOL res -624 192 R0
SYMATTR InstName R1
SYMATTR Value 105
SYMBOL res -448 240 R0
SYMATTR InstName R2
SYMATTR Value 105
SYMBOL res 208 528 R90
WINDOW 0 0 56 VBottom 2
WINDOW 3 32 56 VTop 2
SYMATTR InstName R3
SYMATTR Value 1449
SYMBOL res -848 144 R180
WINDOW 0 36 76 Left 2
WINDOW 3 36 40 Left 2
SYMATTR InstName R4
SYMATTR Value 400
SYMBOL res -752 144 R180
WINDOW 0 36 76 Left 2
WINDOW 3 36 40 Left 2
SYMATTR InstName R5
SYMATTR Value 400
SYMBOL cap -416 64 R0
SYMATTR InstName C1
SYMATTR Value 10p
SYMBOL res 512 128 R90
WINDOW 0 0 56 VBottom 2
WINDOW 3 32 56 VTop 2
SYMATTR InstName R6
SYMATTR Value 220
SYMBOL res 656 416 R180
WINDOW 0 36 76 Left 2
WINDOW 3 36 40 Left 2
SYMATTR InstName R7
SYMATTR Value 10Meg
SYMBOL cap 176 624 R90
WINDOW 0 0 32 VBottom 2
WINDOW 3 32 32 VTop 2
SYMATTR InstName C3
SYMATTR Value 10p
SYMBOL cap 704 320 R0
SYMATTR InstName C4
SYMATTR Value 22p
SYMBOL res -512 48 R90
WINDOW 0 7 108 VBottom 2
WINDOW 3 -14 -2 VTop 2
SYMATTR InstName R8
SYMATTR Value 50
SYMBOL res -512 112 R90
WINDOW 0 13 111 VBottom 2
WINDOW 3 -15 -20 VTop 2
SYMATTR InstName R9
SYMATTR Value 50
SYMBOL voltage -864 288 R0
WINDOW 3 -456 247 Left 2
WINDOW 39 0 0 Left 0
SYMATTR Value SINE(0 0.05 10Meg 0 0 0 1000)
SYMATTR InstName V4
SYMATTR Value2 AC 0.5 0
SYMBOL voltage 144 1184 R0
WINDOW 123 0 0 Left 0
WINDOW 39 0 0 Left 0
SYMATTR InstName V5
SYMATTR Value -5
SYMBOL voltage 144 976 R180
WINDOW 0 24 96 Left 2
WINDOW 3 24 16 Left 2
WINDOW 123 0 0 Left 0
WINDOW 39 0 0 Left 0
SYMATTR InstName V6
SYMATTR Value 5
SYMBOL AD8129 128 1088 R0
SYMATTR InstName U2
SYMBOL voltage -864 1104 R0
WINDOW 3 -456 247 Left 2
WINDOW 39 0 0 Left 0
SYMATTR Value SINE(0 0.05 10Meg 0 0 0 1000)
SYMATTR InstName V7
SYMATTR Value2 AC 0.5 0
SYMBOL res -448 1184 R0
SYMATTR InstName R11
SYMATTR Value 1000
SYMBOL res 208 1472 R90
WINDOW 0 0 56 VBottom 2
WINDOW 3 32 56 VTop 2
SYMATTR InstName R12
SYMATTR Value 10000
SYMBOL res 512 1072 R90
WINDOW 0 0 56 VBottom 2
WINDOW 3 32 56 VTop 2
SYMATTR InstName R15
SYMATTR Value 220
SYMBOL res 656 1360 R180
WINDOW 0 36 76 Left 2
WINDOW 3 36 40 Left 2
SYMATTR InstName R16
SYMATTR Value 10Meg
SYMBOL cap 704 1264 R0
SYMATTR InstName C6
SYMATTR Value 22p
TEXT -1320 360 Left 2 !.tran 0.1m
